src/tests/data/grids/RAW/IEEE 14 bus_35_3_WINDING_POST_EDITING_IEEE_HVDC_final_nudox_1_hvdc_desf_rates_fs_ss.raw
@!IC,SBASE,REV,XFRRAT,NXFRAT,BASFRQ
1,  100.00, 35,     0,     0, 60.00     / PSS(R)E-35.3    SUN, OCT 06 2024  17:42
 08/19/93 UW ARCHIVE           100.0  1962 W IEEE 14 BUS TES

GENERAL, THRSHZ=0.0001, PQBRAK=0.7, BLOWUP=5.0, MaxIsolLvls=4, CAMaxReptSln=20, ChkDupCntLbl=0
GAUSS, ITMX=100, ACCP=1.6, ACCQ=1.6, ACCM=1.0, TOL=0.0001
NEWTON, ITMXN=20, ACCN=1.0, TOLN=0.1, VCTOLQ=0.1, VCTOLV=0.00001, DVLIM=0.99, NDVFCT=0.99
ADJUST, ADJTHR=0.005, ACCTAP=1.0, TAPLIM=0.05, SWVBND=100.0, MXTPSS=99, MXSWIM=10
TYSL, ITMXTY=20, ACCTY=1.0, TOLTY=0.00001
SOLVER, FNSL, ACTAPS=0, AREAIN=0, PHSHFT=0, DCTAPS=0, SWSHNT=0, FLATST=0, VARLIM=99, NONDIV=0
RATING, 1, "RATE1 ", "RATING SET 1                    "
RATING, 2, "RATE2 ", "RATING SET 2                    "
RATING, 3, "RATE3 ", "RATING SET 3                    "
RATING, 4, "RATE4 ", "RATING SET 4                    "
RATING, 5, "RATE5 ", "RATING SET 5                    "
RATING, 6, "RATE6 ", "RATING SET 6                    "
RATING, 7, "RATE7 ", "RATING SET 7                    "
RATING, 8, "RATE8 ", "RATING SET 8                    "
RATING, 9, "RATE9 ", "RATING SET 9                    "
RATING,10, "RATE10", "RATING SET 10                   "
RATING,11, "RATE11", "RATING SET 11                   "
RATING,12, "RATE12", "RATING SET 12                   "
0 / END OF SYSTEM-WIDE DATA, BEGIN BUS DATA
@!   I,'NAME        ', BASKV, IDE,AREA,ZONE,OWNER, VM,        VA,    NVHI,   NVLO,   EVHI,   EVLO
     1,'BUS 1       ', 138.0000,3,   1,   1,   1,1.06000,   0.0000,1.10000,0.90000,1.10000,0.90000
     2,'BUS 2       ', 138.0000,2,   1,   1,   1,1.04844,  -0.0358,1.10000,0.90000,1.10000,0.90000
     3,'BUS 3       ', 138.0000,2,   1,   1,   1,1.01000,  -9.9009,1.10000,0.90000,1.10000,0.90000
     4,'BUS 4       ', 138.0000,1,   1,   1,   1,1.02420,  -9.6856,1.10000,0.90000,1.10000,0.90000
     5,'BUS 5       ', 138.0000,1,   1,   1,   1,1.05319, -10.1077,1.10000,0.90000,1.10000,0.90000
     6,'BUS 6       ', 138.0000,2,   1,   1,   1,1.49702, -23.6347,1.10000,0.90000,1.10000,0.90000
     7,'BUS 7       ', 138.0000,1,   1,   1,   1,1.01254, -12.1391,1.10000,0.90000,1.10000,0.90000
     8,'BUS 8       ', 138.0000,2,   1,   1,   1,1.05270, -12.1391,1.10000,0.90000,1.10000,0.90000
     9,'BUS 9       ', 138.0000,1,   1,   1,   1,0.97000, -13.5322,1.10000,0.90000,1.10000,0.90000
    10,'BUS 10      ', 138.0000,1,   1,   1,   1,1.00000, -23.8140,1.10000,0.90000,1.10000,0.90000
    11,'BUS 11      ', 138.0000,1,   1,   1,   1,1.23912, -23.5673,1.10000,0.90000,1.10000,0.90000
    12,'BUS 12      ', 138.0000,1,   1,   1,   1,1.67337, -26.7076,1.10000,0.90000,1.10000,0.90000
    13,'BUS 13      ', 138.0000,1,   1,   1,   1,1.66199, -28.9651,1.10000,0.90000,1.10000,0.90000
    14,'BUS 14      ', 138.0000,1,   1,   1,   1,1.24638, -22.8815,1.10000,0.90000,1.10000,0.90000
    15,'NEW_BUS_1   ', 138.0000,1,   1,   1,   1,1.04241,  -0.2716,1.10000,0.90000,1.10000,0.90000
    16,'NEW_BUS_2   ',  33.0000,1,   1,   1,   1,0.99574,  -1.0370,1.10000,0.90000,1.10000,0.90000
    17,'NEW_BUS_3   ', 400.0000,1,   1,   1,   1,1.01790,  -0.6421,1.10000,0.90000,1.10000,0.90000
    18,'NUDOX1      ', 138.0000,1,   2,   2,   1,1.03118, -10.6806,1.10000,0.90000,1.10000,0.90000
    19,'NUDOX2      ', 138.0000,1,   2,   2,   1,1.00146, -10.2907,1.10000,0.90000,1.10000,0.90000
0 / END OF BUS DATA, BEGIN LOAD DATA
@!   I,'ID',STAT,AREA,ZONE,      PL,        QL,        IP,        IQ,        YP,        YQ, OWNER,SCALE,INTRPT,  DGENP,     DGENQ,DGENF,'  LOAD TYPE '
     2,'1 ',   1,   1,   1,    21.700,    12.700,     0.000,     0.000,     0.000,     0.000,   1,    1,  0,     0.000,     0.000,    0,'            '
     3,'1 ',   1,   1,   1,    94.200,    19.000,     0.000,     0.000,     0.000,     0.000,   1,    1,  0,     0.000,     0.000,    0,'            '
     4,'1 ',   1,   1,   1,    47.800,    -3.900,     0.000,     0.000,     0.000,     0.000,   1,    1,  0,     0.000,     0.000,    0,'            '
     5,'1 ',   1,   1,   1,     7.600,     1.600,     0.000,     0.000,     0.000,     0.000,   1,    1,  0,     0.000,     0.000,    0,'            '
     6,'1 ',   1,   1,   1,    11.200,     7.500,     0.000,     0.000,     0.000,     0.000,   1,    1,  0,     0.000,     0.000,    0,'            '
     9,'1 ',   1,   1,   1,    29.500,    16.600,     0.000,     0.000,     0.000,     0.000,   1,    1,  0,     0.000,     0.000,    0,'            '
    10,'1 ',   1,   1,   1,     9.000,     5.800,     0.000,     0.000,     0.000,     0.000,   1,    1,  0,     0.000,     0.000,    0,'            '
    11,'1 ',   1,   1,   1,     3.500,     1.800,     0.000,     0.000,     0.000,     0.000,   1,    1,  0,     0.000,     0.000,    0,'            '
    12,'1 ',   1,   1,   1,     6.100,     1.600,     0.000,     0.000,     0.000,     0.000,   1,    1,  0,     0.000,     0.000,    0,'            '
    13,'1 ',   1,   1,   1,    13.500,     5.800,     0.000,     0.000,     0.000,     0.000,   1,    1,  0,     0.000,     0.000,    0,'            '
    14,'1 ',   1,   1,   1,    14.900,     5.000,     0.000,     0.000,     0.000,     0.000,   1,    1,  0,     0.000,     0.000,    0,'            '
    16,'1 ',   1,   1,   1,     5.000,     5.000,     0.000,     0.000,     0.000,     0.000,   1,    1,  0,     0.000,     0.000,    0,'            '
    17,'1 ',   1,   1,   1,     5.000,     5.000,     0.000,     0.000,     0.000,     0.000,   1,    1,  0,     0.000,     0.000,    0,'            '
    18,'1 ',   1,   1,   1,    10.000,    10.000,     0.000,     0.000,     0.000,     0.000,   1,    1,  0,     0.000,     0.000,    0,'            '
    19,'1 ',   1,   1,   1,    10.000,    10.000,     0.000,     0.000,     0.000,     0.000,   1,    1,  0,     0.000,     0.000,    0,'            '
0 / END OF LOAD DATA, BEGIN FIXED SHUNT DATA
@!   I,'ID',STATUS,  GL,        BL
     6,'1 ',1,     0.100,    20.000
     6,'2 ',1,     0.100,    20.000
     9,' 1',1,     0.000,    19.000
0 / END OF FIXED SHUNT DATA, BEGIN GENERATOR DATA
@!   I,'ID',      PG,        QG,        QT,        QB,     VS,    IREG,NREG,     MBASE,     ZR,         ZX,         RT,         XT,     GTAP,STAT, RMPCT,      PT,        PB,BASLOD,O1,    F1,  O2,    F2,  O3,    F3,  O4,    F4,WMOD, WPF
     1,'1 ',    92.677,     2.915,     0.000,     0.000,1.06000,     1,   0,   615.000, 0.00000E+0, 1.00000E+0, 0.00000E+0, 0.00000E+0,1.00000,1,  100.0, 10000.000,-10000.000, 0,   1,1.0000
     2,'1 ',   319.000,   -40.000,    50.000,   -40.000,1.04500,     2,   0,    60.000, 0.00000E+0, 1.00000E+0, 0.00000E+0, 0.00000E+0,1.00000,1,  100.0, 10000.000,-10000.000, 0,   1,1.0000
     3,'1 ',     0.000,    19.133,    40.000,     0.000,1.01000,     3,   0,    60.000, 0.00000E+0, 1.00000E+0, 0.00000E+0, 0.00000E+0,1.00000,1,  100.0, 10000.000,-10000.000, 0,   1,1.0000
     6,'1 ',     0.000,    -6.000,    24.000,    -6.000,1.07000,     6,   0,    25.000, 0.00000E+0, 1.00000E+0, 0.00000E+0, 0.00000E+0,1.00000,1,  100.0, 10000.000,-10000.000, 0,   1,1.0000
     8,'1 ',     0.000,    24.000,    24.000,    -6.000,1.09000,     8,   0,    25.000, 0.00000E+0, 1.00000E+0, 0.00000E+0, 0.00000E+0,1.00000,1,  100.0, 10000.000,-10000.000, 0,   1,1.0000
0 / END OF GENERATOR DATA, BEGIN BRANCH DATA
@!   I,     J,'CKT',      R,           X,       B,                   'N A M E'                 ,  RATE1,  RATE2,  RATE3,  RATE4,  RATE5,  RATE6,  RATE7,  RATE8,  RATE9, RATE10, RATE11, RATE12,   GI,      BI,      GJ,      BJ,STAT,MET, LEN,  O1,  F1,    O2,  F2,    O3,  F3,    O4,  F4
     1,     2,'1 ', 1.93800E-02, 5.91700E-02,0.05280,'                                        ', 600.00, 700.00, 800.00, 900.00,1000.00,1100.00,1200.00,1300.00,1400.00,1500.00,1600.00,1700.00, 0.00000, 0.00000, 0.00000, 0.00000,1,1,  0.00,   1,1.0000
     1,     5,'1 ', 5.40300E-02, 2.23040E-01,0.04920,'                                        ', 600.00, 700.00, 800.00, 900.00,1000.00,1100.00,1200.00,1300.00,1400.00,1500.00,1600.00,1700.00, 0.00000, 0.00000, 0.00000, 0.00000,1,1,  0.00,   1,1.0000
     2,     3,'1 ', 4.69900E-02, 1.97970E-01,0.04380,'                                        ', 600.00, 700.00, 800.00, 900.00,1000.00,1100.00,1200.00,1300.00,1400.00,1500.00,1600.00,1700.00, 0.00000, 0.00000, 0.00000, 0.00000,1,1,  0.00,   1,1.0000
     2,     4,'1 ', 5.81100E-02, 1.76320E-01,0.03400,'                                        ', 600.00, 700.00, 800.00, 900.00,1000.00,1100.00,1200.00,1300.00,1400.00,1500.00,1600.00,1700.00, 0.00000, 0.00000, 0.00000, 0.00000,1,1,  0.00,   1,1.0000
     2,     5,'1 ', 5.69500E-02, 1.73880E-01,0.03460,'                                        ', 600.00, 700.00, 800.00, 900.00,1000.00,1100.00,1200.00,1300.00,1400.00,1500.00,1600.00,1700.00, 0.00000, 0.00000, 0.00000, 0.00000,1,1,  0.00,   1,1.0000
     2,    15,'1 ', 1.93800E-02, 5.91700E-02,0.05280,'                                        ', 600.00, 700.00, 800.00, 900.00,1000.00,1100.00,1200.00,1300.00,1400.00,1500.00,1600.00,1700.00, 0.00000, 0.00000, 0.00000, 0.00000,1,1,  0.00,   1,1.0000
     3,     4,'1 ', 6.70100E-02, 1.71030E-01,0.01280,'                                        ', 600.00, 700.00, 800.00, 900.00,1000.00,1100.00,1200.00,1300.00,1400.00,1500.00,1600.00,1700.00, 0.00000, 0.00000, 0.00000, 0.00000,1,1,  0.00,   1,1.0000
     4,     5,'1 ', 1.33500E-02, 4.21100E-02,0.00000,'                                        ', 600.00, 700.00, 800.00, 900.00,1000.00,1100.00,1200.00,1300.00,1400.00,1500.00,1600.00,1700.00, 0.00000, 0.00000, 0.00000, 0.00000,1,1,  0.00,   1,1.0000
     4,    19,'1 ', 6.70100E-02, 1.71030E-01,0.01280,'                                        ', 600.00, 700.00, 800.00, 900.00,1000.00,1100.00,1200.00,1300.00,1400.00,1500.00,1600.00,1700.00, 0.00000, 0.00000, 0.00000, 0.00000,1,1,  0.00,   1,1.0000
     5,    18,'1 ', 6.70100E-02, 1.71030E-01,0.01280,'                                        ', 600.00, 700.00, 800.00, 900.00,1000.00,1100.00,1200.00,1300.00,1400.00,1500.00,1600.00,1700.00, 0.00000, 0.00000, 0.00000, 0.00000,1,1,  0.00,   1,1.0000
     6,    11,'1 ', 9.49800E-02, 1.98900E-01,0.00000,'                                        ', 600.00, 700.00, 800.00, 900.00,1000.00,1100.00,1200.00,1300.00,1400.00,1500.00,1600.00,1700.00, 0.00000, 0.00000, 0.00000, 0.00000,1,1,  0.00,   1,1.0000
     6,    12,'1 ', 1.22910E-01, 2.55810E-01,0.00000,'                                        ', 600.00, 700.00, 800.00, 900.00,1000.00,1100.00,1200.00,1300.00,1400.00,1500.00,1600.00,1700.00, 0.00000, 0.00000, 0.00000, 0.00000,1,1,  0.00,   1,1.0000
     6,    13,'1 ', 6.61500E-02, 1.30270E-01,0.00000,'                                        ', 600.00, 700.00, 800.00, 900.00,1000.00,1100.00,1200.00,1300.00,1400.00,1500.00,1600.00,1700.00, 0.00000, 0.00000, 0.00000, 0.00000,1,1,  0.00,   1,1.0000
     7,     8,'1 ', 0.00000E+00, 1.76150E-01,0.00000,'                                        ', 600.00, 700.00, 800.00, 900.00,1000.00,1100.00,1200.00,1300.00,1400.00,1500.00,1600.00,1700.00, 0.00000, 0.00000, 0.00000, 0.00000,1,1,  0.00,   1,1.0000
     7,     9,'1 ', 0.00000E+00, 1.10010E-01,0.00000,'                                        ', 600.00, 700.00, 800.00, 900.00,1000.00,1100.00,1200.00,1300.00,1400.00,1500.00,1600.00,1700.00, 0.00000, 0.00000, 0.00000, 0.00000,1,1,  0.00,   1,1.0000
     9,    10,'1 ', 3.18100E-02, 8.45000E-02,0.00000,'                                        ', 600.00, 700.00, 800.00, 900.00,1000.00,1100.00,1200.00,1300.00,1400.00,1500.00,1600.00,1700.00, 0.00000, 0.00000, 0.00000, 0.00000,1,1,  0.00,   1,1.0000
     9,    14,'1 ', 1.27110E-01, 2.70380E-01,0.00000,'                                        ', 600.00, 700.00, 800.00, 900.00,1000.00,1100.00,1200.00,1300.00,1400.00,1500.00,1600.00,1700.00, 0.00000, 0.00000, 0.00000, 0.00000,1,1,  0.00,   1,1.0000
    10,    11,'1 ', 8.20500E-02, 1.92070E-01,0.00000,'                                        ', 600.00, 700.00, 800.00, 900.00,1000.00,1100.00,1200.00,1300.00,1400.00,1500.00,1600.00,1700.00, 0.00000, 0.00000, 0.00000, 0.00000,1,1,  0.00,   1,1.0000
    12,    13,'1 ', 2.20920E-01, 1.99880E-01,0.00000,'                                        ', 600.00, 700.00, 800.00, 900.00,1000.00,1100.00,1200.00,1300.00,1400.00,1500.00,1600.00,1700.00, 0.00000, 0.00000, 0.00000, 0.00000,1,1,  0.00,   1,1.0000
    13,    14,'1 ', 1.70930E-01, 3.48020E-01,0.00000,'                                        ', 600.00, 700.00, 800.00, 900.00,1000.00,1100.00,1200.00,1300.00,1400.00,1500.00,1600.00,1700.00, 0.00000, 0.00000, 0.00000, 0.00000,1,1,  0.00,   1,1.0000
0 / END OF BRANCH DATA, BEGIN SYSTEM SWITCHING DEVICE DATA
@!   I,     J,'CKT',          X,  RATE1,  RATE2,  RATE3,  RATE4,  RATE5,  RATE6,  RATE7,  RATE8,  RATE9, RATE10, RATE11, RATE12, STAT,NSTAT,  MET,STYPE,'NAME'
0 / END OF SYSTEM SWITCHING DEVICE DATA, BEGIN TRANSFORMER DATA
@!   I,     J,     K,'CKT',CW,CZ,CM,     MAG1,        MAG2,NMETR,               'N A M E',               STAT,O1,  F1,    O2,  F2,    O3,  F3,    O4,  F4,     'VECGRP', ZCOD
@!   R1-2,       X1-2, SBASE1-2,     R2-3,       X2-3, SBASE2-3,     R3-1,       X3-1, SBASE3-1, VMSTAR,   ANSTAR
@!WINDV1, NOMV1,   ANG1, RATE1-1, RATE1-2, RATE1-3, RATE1-4, RATE1-5, RATE1-6, RATE1-7, RATE1-8, RATE1-9,RATE1-10,RATE1-11,RATE1-12,COD1,CONT1,NOD1,  RMA1,   RMI1,   VMA1,   VMI1, NTP1,TAB1, CR1,    CX1,  CNXA1
@!WINDV2, NOMV2,   ANG2, RATE2-1, RATE2-2, RATE2-3, RATE2-4, RATE2-5, RATE2-6, RATE2-7, RATE2-8, RATE2-9,RATE2-10,RATE2-11,RATE2-12,COD2,CONT2,NOD2,  RMA2,   RMI2,   VMA2,   VMI2, NTP2,TAB2, CR2,    CX2,  CNXA2
@!WINDV3, NOMV3,   ANG3, RATE3-1, RATE3-2, RATE3-3, RATE3-4, RATE3-5, RATE3-6, RATE3-7, RATE3-8, RATE3-9,RATE3-10,RATE3-11,RATE3-12,COD3,CONT3,NOD3,  RMA3,   RMI3,   VMA3,   VMI3, NTP3,TAB3, CR3,    CX3,  CNXA3
     4,     7,     0,'1 ', 1, 1, 1, 0.00000E+00, 0.00000E+00,2,'                                        ',1,   1,1.0000,   0,1.0000,   0,1.0000,   0,1.0000,'            '
 0.00000E+00, 2.09120E-01, 100.00
0.97800,  0.000,  0.000,  100.00,  110.00,  120.00,  130.00,  140.00,  150.00,  160.00,  170.00,  180.00,  190.00,  200.00,  210.00, 0,      0,   0,1.50000,0.51000,1.50000,0.51000, 159, 0,0.00000,0.00000, 0.000
1.00000,   0.00
     4,     9,     0,'1 ', 1, 1, 1, 0.00000E+00, 0.00000E+00,2,'                                        ',1,   1,1.0000,   0,1.0000,   0,1.0000,   0,1.0000,'            '
 0.00000E+00, 5.56180E-01, 100.00
0.96900,  0.000,  0.000,  100.00,  110.00,  120.00,  130.00,  140.00,  150.00,  160.00,  170.00,  180.00,  190.00,  200.00,  210.00, 0,      0,   0,1.50000,0.51000,1.50000,0.51000, 159, 0,0.00000,0.00000, 0.000
1.00000,   0.00
     5,     6,     0,'1 ', 1, 1, 1, 0.00000E+00, 0.00000E+00,2,'                                        ',1,   1,1.0000,   0,1.0000,   0,1.0000,   0,1.0000,'            '
 0.00000E+00, 2.52020E-01, 100.00
0.93200,  0.000,  0.000,  100.00,  110.00,  120.00,  130.00,  140.00,  150.00,  160.00,  170.00,  180.00,  190.00,  200.00,  210.00, 0,      0,   0,1.50000,0.51000,1.50000,0.51000, 159, 0,0.00000,0.00000, 0.000
1.00000,   0.00
    12,    13,     0,'2 ', 1, 1, 1, 0.00000E+00, 0.00000E+00,2,'DESF1 2                                 ',1,   1,1.0000,   0,1.0000,   0,1.0000,   0,1.0000,'            '
 1.00000E-04, 4.10000E-03, 100.00
1.00000,  0.000,  2.300, 1270.00, 1270.00, 1270.00,  130.00,  140.00,  150.00,  160.00,  170.00,  180.00,  190.00,  200.00,  210.00, 3,      0,   0,50.0000,-50.000,4240.15,-4222.1,  33, 0,0.00000,0.00000, 0.000
1.00000,   0.00
    15,    17,    16,'1 ', 1, 1, 1, 0.00000E+00, 0.00000E+00,2,'TR1                                     ',1,   1,1.0000,   0,1.0000,   0,1.0000,   0,1.0000,'            ', 0
 1.50000E-03, 6.86300E-02, 100.00, 3.10000E-03, 1.47330E-01, 100.00, 3.80000E-03, 2.08580E-01, 100.00,1.00311,  -0.6327
1.03233,135.003,  0.000,  300.00,  300.00,  300.00,    0.00,    0.00,    0.00,    0.00,    0.00,    0.00,    0.00,    0.00,    0.00, 1,     15,   0,1.13770,0.90780,1.07580,0.92420,  25, 0,0.00000,0.00000, 0.000
1.01495,405.980,  0.000,  300.00,  300.00,  300.00,    0.00,    0.00,    0.00,    0.00,    0.00,    0.00,    0.00,    0.00,    0.00, 0,      0,   0,1.16720,0.86270,1.10000,0.90000,   5, 0,0.00000,0.00000, 0.000
1.00000, 33.000,  0.000,   90.00,   90.00,   90.00,    0.00,    0.00,    0.00,    0.00,    0.00,    0.00,    0.00,    0.00,    0.00, 0,      0,   0,1.00000,1.00000,1.10000,0.90000, 159, 0,0.00000,0.00000, 0.000
0 / END OF TRANSFORMER DATA, BEGIN AREA DATA
@! I,   ISW,    PDES,     PTOL,    'ARNAME'
   1,     0,    0.000,   10.000,'IEEE14      '
   2,     0,    0.000,   10.000,'EU          '
0 / END OF AREA DATA, BEGIN TWO-TERMINAL DC DATA
@!  'NAME',   MDC,    RDC,     SETVL,    VSCHD,    VCMOD,    RCOMP,   DELTI,METER   DCVMIN,CCCITMX,CCCACC
@! IPR,NBR,  ANMXR,  ANMNR,   RCR,    XCR,   EBASR,  TRR,    TAPR,   TMXR,   TMNR,   STPR,    ICR,NDR,   IFR,   ITR,'IDR', XCAPR
@! IPI,NBI,  ANMXI,  ANMNI,   RCI,    XCI,   EBASI,  TRI,    TAPI,   TMXI,   TMNI,   STPI,    ICI,NDI,   IFI,   ITI,'IDI', XCAPI
0 / END OF TWO-TERMINAL DC DATA, BEGIN VSC DC LINE DATA
@!  'NAME',   MDC,  RDC,   O1,  F1,    O2,  F2,    O3,  F3,    O4,  F4
@!IBUS,TYPE,MODE,  DCSET,  ACSET,  ALOSS,  BLOSS,MINLOSS,  SMAX,   IMAX,   PWF,     MAXQ,   MINQ, VSREG,NREG, RMPCT
"CBX-CS1     ",1, 5.3200,   1,1.0000
     9,   1,   1, 640.00,0.97000,1161.00,  3.080,  0.000,   0.00,   0.00,0.00000, 401.00,-601.00,     9,   0, 100.0
    10,   2,   1,-100.00,1.00000,1161.00,  3.080,  0.000,   0.00,   0.00,0.00000, 401.00,-601.00,    10,   0, 100.0
"CBX-CS2     ",1, 5.3200,   1,1.0000
     9,   1,   1, 640.00,0.97000,1161.00,  3.080,  0.000,   0.00,   0.00,0.00000, 401.00,-601.00,     9,   0, 100.0
    10,   2,   1,-100.00,1.00000,1161.00,  3.080,  0.000,   0.00,   0.00,0.00000, 401.00,-601.00,    10,   0, 100.0
0 / END OF VSC DC LINE DATA, BEGIN IMPEDANCE CORRECTION DATA
@!I,  T1,   Re(F1), Im(F1),   T2,   Re(F2), Im(F2),   T3,   Re(F3), Im(F3),   T4,   Re(F4), Im(F4),   T5,   Re(F5), Im(F5),   T6,   Re(F6), Im(F6)
@!    T7,   Re(F7), Im(F7),   T8,   Re(F8), Im(F8),   T9,   Re(F9), Im(F9),   T10, Re(F10),Im(F10),   T11, Re(F11),Im(F11),   T12, Re(F12),Im(F12)
@!      ...
0 / END OF IMPEDANCE CORRECTION DATA, BEGIN MULTI-TERMINAL DC DATA
@!  'NAME',    NCONV,NDCBS,NDCLN,  MDC, VCONV,   VCMOD, VCONVN
@!  IB, N,  ANGMX,  ANGMN,   RC,     XC,     EBAS,   TR,    TAP,    TPMX,   TPMN,   TSTP,   SETVL,   DCPF,  MARG,CNVCOD
@!IDC, IB,AREA,ZONE,   'DCNAME',  IDC2, RGRND,OWNER
@!IDC,JDC,'DCCKT',MET,  RDC,      LDC
0 / END OF MULTI-TERMINAL DC DATA, BEGIN MULTI-SECTION LINE DATA
@!   I,     J,'ID',MET,DUM1,  DUM2,  DUM3,  DUM4,  DUM5,  DUM6,  DUM7,  DUM8,  DUM9
0 / END OF MULTI-SECTION LINE DATA, BEGIN ZONE DATA
@! I,   'ZONAME'
   1,'IEEE14      '
   2,'EU          '
0 / END OF ZONE DATA, BEGIN INTER-AREA TRANSFER DATA
@!ARFROM,ARTO,'TRID',PTRAN
0 / END OF INTER-AREA TRANSFER DATA, BEGIN OWNER DATA
@! I,   'OWNAME'
0 / END OF OWNER DATA, BEGIN FACTS DEVICE DATA
@!  'NAME',         I,     J,MODE,PDES,   QDES,  VSET,   SHMX,   TRMX,   VTMN,   VTMX,   VSMX,    IMX,   LINX,   RMPCT,OWNER,  SET1,    SET2,VSREF, FCREG,NREG,   'MNAME'
0 / END OF FACTS DEVICE DATA, BEGIN SWITCHED SHUNT DATA
@!   I,'ID',MODSW,ADJM,ST, VSWHI,  VSWLO, SWREG,NREG, RMPCT,   'RMIDNT',     BINIT,S1,N1,    B1, S2,N2,    B2, S3,N3,    B3, S4,N4,    B4, S5,N5,    B5, S6,N6,    B6, S7,N7,    B7, S8,N8,    B8
    12,'1 ',   1,  0,  1,1.00000,1.00000,    12,   0, 100.0,'            ', 150.00, 1, 1,  50.00, 1, 2,  50.00, 1, 3,  50.00
    12,'2 ',   1,  0,  1,1.00000,1.00000,    12,   0, 100.0,'            ',  50.00, 1, 2,  50.00, 1, 2,  50.00
0 / END OF SWITCHED SHUNT DATA, BEGIN GNE DATA
@!  'NAME',        'MODEL',     NTERM,BUS1...BUSNTERM,NREAL,NINTG,NCHAR
@!ST,OWNER,NMETR
@! REAL1...REAL(MIN(10,NREAL))
@! INTG1...INTG(MIN(10,NINTG))
@! CHAR1...CHAR(MIN(10,NCHAR))
0 / END OF GNE DATA, BEGIN INDUCTION MACHINE DATA
@!   I,'ID',ST,SC,DC,AREA,ZONE,OWNER,TC,BC, MBASE,RATEKV,PC,  PSET,     H,      A,      B,      D,      E,     RA,        XA,        XM,        R1,        X1,        R2,        X2,        X3,       E1,    SE1,   E2,    SE2,   IA1,   IA2, XAMULT
0 / END OF INDUCTION MACHINE DATA, BEGIN SUBSTATION DATA
0 / END OF SUBSTATION DATA
Q
